ckt7_Mon_rfi_16_der050.csv
fault_bus,fault_type,fault_R_ohm,Va_mag_pu,Va_ang_deg,Vb_mag_pu,Vb_ang_deg,Vc_mag_pu,Vc_ang_deg,Ia_mag_A,Ia_ang_deg,Ib_mag_A,Ib_ang_deg,Ic_mag_A,Ic_ang_deg
318412,SLG,0,0.491992,-78.7699,1.444594,-129.618,1.010656,101.8598,0.0,12.7468,0.0,-38.8402,0.0,-167.9833
318412,SLG,10,1.261991,-19.4115,1.260347,-139.0335,1.254473,100.5201,0.0,71.5441,0.0,-48.1756,0.0,-169.0056
318412,SLG,20,1.261886,-19.3903,1.260432,-139.0372,1.2545,100.5253,0.0,71.4044,0.0,-48.158,0.0,-168.9928
318412,SLG,30,1.261851,-19.3832,1.26046,-139.0385,1.254509,100.5271,0.0,71.3813,0.0,-48.1536,0.0,-169.0841
318412,SLG,40,1.261833,-19.3797,1.260474,-139.0391,1.254514,100.5279,0.0,71.3592,0.0,-48.1661,0.0,-169.0311
318412,LL,0,0.427152,-108.9506,0.306182,-154.2013,1.126395,108.8517,0.0,-17.5751,0.0,-62.6025,0.0,-160.8087
318412,LL,10,1.261935,-19.422,1.260558,-139.0762,1.254302,100.5276,0.0,71.3264,0.0,-48.1857,0.0,-169.0841
318412,LL,20,1.261858,-19.3955,1.260537,-139.0586,1.254415,100.5291,0.0,71.4091,0.0,-48.0782,0.0,-169.0311
318412,LL,30,1.261832,-19.3867,1.26053,-139.0527,1.254452,100.5296,0.0,71.607,0.0,-48.1153,0.0,-169.1499
318412,LL,40,1.261819,-19.3823,1.260526,-139.0498,1.254471,100.5298,0.0,71.4366,0.0,-48.1604,0.0,-169.0184
318412,3LG,0,0.176661,-93.0975,0.176341,147.0844,0.176014,26.6412,0.0,-2.3966,0.0,-122.0038,0.0,117.1252
318412,3LG,10,1.261766,-19.4147,1.260502,-139.0866,1.254514,100.4849,0.0,71.4826,0.0,-48.1631,0.0,-169.1094
318412,3LG,20,1.261773,-19.3919,1.260509,-139.0637,1.254521,100.5077,0.0,71.5074,0.0,-48.2152,0.0,-169.0587
318412,3LG,30,1.261776,-19.3843,1.260511,-139.0561,1.254523,100.5153,0.0,71.3752,0.0,-48.2524,0.0,-168.9655
318412,3LG,40,1.261777,-19.3805,1.260512,-139.0523,1.254524,100.5191,0.0,71.4592,0.0,-48.0935,0.0,-168.9526
243937,SLG,0,0.727666,-96.2243,1.959953,-155.3824,1.63578,129.0892,0.0,-4.6106,0.0,-64.2619,0.0,-140.7491
243937,SLG,10,1.25595,-19.7176,1.266097,-139.1201,1.253236,100.7901,0.0,71.0186,0.0,-48.3077,0.0,-168.9526
243937,SLG,20,1.258856,-19.5437,1.263316,-139.0806,1.253873,100.6606,0.0,71.1717,0.0,-48.1407,0.0,-168.887
243937,SLG,30,1.259828,-19.4855,1.262385,-139.0674,1.254089,100.6173,0.0,71.4169,0.0,-48.2049,0.0,-168.9928
243937,SLG,40,1.260316,-19.4564,1.261919,-139.0608,1.254198,100.5957,0.0,71.3779,0.0,-48.173,0.0,-168.9782
243937,LL,0,0.376351,-128.5962,0.374298,-140.2168,1.673107,105.4332,0.0,-36.9473,0.0,-48.6255,0.0,-164.3035
243937,LL,10,1.254659,-19.4599,1.260213,-139.4669,1.258777,100.7109,0.0,71.3542,0.0,-48.4695,0.0,-168.9127
243937,LL,20,1.2582,-19.4144,1.260368,-139.2548,1.25666,100.6215,0.0,71.406,0.0,-48.4708,0.0,-168.9255
243937,LL,30,1.259389,-19.3993,1.260418,-139.1838,1.255951,100.5913,0.0,71.3512,0.0,-48.339,0.0,-169.0037
243937,LL,40,1.259985,-19.3917,1.260443,-139.1481,1.255596,100.5762,0.0,71.3713,0.0,-48.3307,0.0,-169.0968
243937,3LG,0,0.043701,-76.5976,0.043624,163.5708,0.043547,43.1472,0.0,14.2392,0.0,-105.4993,0.0,133.7789
243937,3LG,10,1.260187,-19.5373,1.258925,-139.2096,1.252951,100.3622,0.0,71.2526,0.0,-48.2388,0.0,-169.3474
243937,3LG,20,1.260985,-19.4532,1.259722,-139.1253,1.25374,100.4463,0.0,71.4207,0.0,-48.1578,0.0,-169.1751
243937,3LG,30,1.26125,-19.4252,1.259987,-139.0972,1.254003,100.4744,0.0,71.3293,0.0,-48.1964,0.0,-169.0841
243937,3LG,40,1.261383,-19.4112,1.260119,-139.0831,1.254134,100.4884,0.0,71.4054,0.0,-48.2084,0.0,-169.0184
157347,SLG,0,0.592468,-36.8544,1.572311,-150.5667,1.451973,115.186,0.0,54.2654,0.0,-59.4171,0.0,-154.4968
157347,SLG,10,1.257165,-20.0491,1.267741,-138.9584,1.249332,100.7732,0.0,70.9088,0.0,-48.032,0.0,-168.9011
157347,SLG,20,1.259494,-19.7113,1.264143,-138.9981,1.251892,100.6514,0.0,71.0991,0.0,-48.0487,0.0,-168.9928
157347,SLG,30,1.260261,-19.5977,1.262937,-139.012,1.252762,100.611,0.0,71.1697,0.0,-48.2498,0.0,-169.0587
157347,SLG,40,1.260643,-19.5407,1.262333,-139.0191,1.2532,100.5909,0.0,71.1731,0.0,-48.1088,0.0,-169.0714
157347,LL,0,0.540227,-25.2425,0.649905,-148.1938,1.542322,101.826,0.0,65.1469,0.0,-56.8683,0.0,-167.8327
157347,LL,10,1.251997,-19.8086,1.262952,-139.6388,1.256545,100.8554,0.0,71.0844,0.0,-48.858,0.0,-168.5854
157347,LL,20,1.256861,-19.5914,1.261801,-139.341,1.255504,100.6951,0.0,71.2015,0.0,-48.5232,0.0,-168.8343
157347,LL,30,1.258494,-19.5178,1.261388,-139.2412,1.255171,100.6407,0.0,71.3628,0.0,-48.2089,0.0,-168.9526
157347,LL,40,1.259314,-19.4809,1.261175,-139.1912,1.255008,100.6133,0.0,71.3014,0.0,-48.3157,0.0,-168.8998
157347,3LG,0,0.604469,-23.8857,0.603277,-143.7185,0.602103,95.8311,0.0,66.8276,0.0,-52.9528,0.0,-173.7981
157347,3LG,10,1.259093,-19.7264,1.257847,-139.3988,1.25187,100.1735,0.0,70.9763,0.0,-48.5041,0.0,-169.4256
157347,3LG,20,1.260447,-19.5483,1.259192,-139.2204,1.253209,100.3515,0.0,71.279,0.0,-48.3129,0.0,-169.1751
157347,3LG,30,1.260894,-19.4887,1.259635,-139.1607,1.25365,100.411,0.0,71.2774,0.0,-48.2936,0.0,-169.1751
157347,3LG,40,1.261116,-19.4588,1.259856,-139.1308,1.253871,100.4409,0.0,71.2676,0.0,-48.2456,0.0,-169.0968
298162,SLG,0,0.50243,-89.5297,1.783301,-146.1515,1.31077,123.7447,0.0,2.0841,0.0,-55.0166,0.0,-146.3545
298162,SLG,10,1.258787,-21.1042,1.273415,-138.5282,1.238268,100.7763,0.0,69.8112,0.0,-47.6476,0.0,-168.9298
298162,SLG,20,1.260389,-20.242,1.266917,-138.7777,1.246307,100.6483,0.0,70.5453,0.0,-47.7495,0.0,-168.8751
298162,SLG,30,1.260876,-19.9522,1.264772,-138.8639,1.249028,100.6079,0.0,70.8299,0.0,-48.0978,0.0,-168.9671
298162,SLG,40,1.261111,-19.8068,1.263704,-138.9076,1.250395,100.5881,0.0,71.0489,0.0,-48.0174,0.0,-168.98
298162,LL,0,0.320702,-138.8552,0.31985,-141.2224,1.549117,107.6707,0.0,-46.9368,0.0,-49.3633,0.0,-161.9609
298162,LL,10,1.242569,-20.8735,1.269755,-140.2692,1.251254,101.2973,0.0,70.1004,0.0,-49.3569,0.0,-168.229
298162,LL,20,1.252164,-20.1289,1.265346,-139.6541,1.252693,100.9158,0.0,70.7778,0.0,-48.7633,0.0,-168.6638
298162,LL,30,1.255368,-19.8773,1.263783,-139.4495,1.253259,100.7878,0.0,71.011,0.0,-48.6049,0.0,-169.0184
298162,LL,40,1.256971,-19.7509,1.262984,-139.3473,1.253559,100.7236,0.0,71.1538,0.0,-48.5323,0.0,-168.7295
298162,3LG,0,0.007762,-85.7621,0.00775,154.3891,0.007732,34.0334,0.0,4.9401,0.0,-114.587,0.0,124.443
298162,3LG,10,1.254977,-20.3584,1.253818,-140.0301,1.247789,99.5449,0.0,70.3611,0.0,-49.1705,0.0,-170.0308
298162,3LG,20,1.258417,-19.8651,1.257205,-139.5368,1.251195,100.0364,0.0,70.9038,0.0,-48.7671,0.0,-169.4914
298162,3LG,30,1.259547,-19.7,1.258317,-139.3718,1.252314,100.2008,0.0,71.2188,0.0,-48.4765,0.0,-169.335
298162,3LG,40,1.260108,-19.6174,1.25887,-139.2892,1.252871,100.2832,0.0,71.3054,0.0,-48.4229,0.0,-169.4792
165448,SLG,0,0.495385,-89.703,1.789965,-145.9299,1.303766,124.0327,0.0,2.1993,0.0,-54.7757,0.0,-145.8622
165448,SLG,10,1.259273,-21.2364,1.274042,-138.465,1.236746,100.7682,0.0,69.6869,0.0,-47.5982,0.0,-168.9705
165448,SLG,20,1.260654,-20.3086,1.267214,-138.7451,1.245539,100.6432,0.0,70.4609,0.0,-47.9586,0.0,-168.8621
165448,SLG,30,1.261059,-19.9968,1.264965,-138.8419,1.248514,100.6043,0.0,70.7346,0.0,-47.9483,0.0,-168.8481
165448,SLG,40,1.26125,-19.8403,1.263847,-138.891,1.250009,100.5853,0.0,71.0574,0.0,-47.9898,0.0,-168.9269
165448,LL,0,0.317796,-139.5317,0.317071,-141.7449,1.550442,107.8794,0.0,-47.8525,0.0,-49.9361,0.0,-161.8913
165448,LL,10,1.241539,-21.0159,1.270785,-140.3403,1.250385,101.3546,0.0,69.6646,0.0,-49.413,0.0,-168.2044
165448,LL,20,1.251661,-20.2013,1.265888,-139.6889,1.252222,100.9441,0.0,70.5252,0.0,-48.8741,0.0,-168.8351
165448,LL,30,1.255036,-19.9258,1.26415,-139.4725,1.252938,100.8065,0.0,70.7888,0.0,-48.629,0.0,-168.6901
165448,LL,40,1.256723,-19.7874,1.263262,-139.3644,1.253315,100.7376,0.0,70.9415,0.0,-48.4158,0.0,-168.7557
165448,3LG,0,0.00719,-86.1511,0.007179,153.9985,0.007162,33.6497,0.0,4.558,0.0,-115.0405,0.0,123.9947
165448,3LG,10,1.254517,-20.4375,1.253373,-140.109,1.247331,99.4665,0.0,70.4053,0.0,-49.2463,0.0,-170.1718
165448,3LG,20,1.258194,-19.9048,1.256989,-139.5765,1.250973,99.997,0.0,70.9077,0.0,-48.4861,0.0,-169.6353
165448,3LG,30,1.259399,-19.7266,1.258175,-139.3983,1.252167,100.1745,0.0,71.2369,0.0,-48.5566,0.0,-169.467
165448,3LG,40,1.259998,-19.6373,1.258764,-139.3091,1.252761,100.2634,0.0,71.2721,0.0,-48.4875,0.0,-169.5036
165449,SLG,0,0.431766,-94.2426,1.849859,-145.7775,1.299817,126.6439,0.0,-2.3616,0.0,-54.7346,0.0,-143.448
165449,SLG,10,1.265802,-22.5737,1.28084,-137.8114,1.220809,100.6896,0.0,68.2507,0.0,-47.0417,0.0,-168.852
165449,SLG,20,1.26426,-20.982,1.270308,-138.4048,1.237509,100.5885,0.0,69.8274,0.0,-47.488,0.0,-169.0223
165449,SLG,30,1.263539,-20.4466,1.266957,-138.6122,1.24315,100.5644,0.0,70.4227,0.0,-47.7191,0.0,-168.9413
165449,SLG,40,1.263139,-20.1781,1.265313,-138.7177,1.245983,100.5541,0.0,70.8054,0.0,-47.83,0.0,-169.0332
165449,LL,0,0.28618,-147.4689,0.286159,-148.9078,1.587102,108.8734,0.0,-55.358,0.0,-56.6937,0.0,-160.9432
165449,LL,10,1.232114,-22.4619,1.28317,-141.0569,1.241601,101.9706,0.0,68.3182,0.0,-50.1694,0.0,-167.7208
165449,LL,20,1.247221,-20.9378,1.272381,-140.0328,1.24732,101.2424,0.0,70.0155,0.0,-49.1443,0.0,-168.5448
165449,LL,30,1.252141,-20.4198,1.268542,-139.6983,1.249556,101.0029,0.0,70.5224,0.0,-48.7724,0.0,-168.5314
165449,LL,40,1.254576,-20.1589,1.266578,-139.5325,1.250737,100.8839,0.0,70.7274,0.0,-48.6984,0.0,-168.7164
165449,3LG,0,0.004174,-90.7324,0.00417,149.3899,0.004158,29.124,0.0,-0.0588,0.0,-119.6603,0.0,119.4222
165449,3LG,10,1.251256,-21.2245,1.250329,-140.8916,1.244066,98.6896,0.0,69.6348,0.0,-50.0265,0.0,-170.8033
165449,3LG,20,1.256664,-20.3007,1.255567,-139.9698,1.249434,99.6062,0.0,70.4087,0.0,-49.1331,0.0,-170.0192
165449,3LG,30,1.258402,-19.991,1.257249,-139.661,1.251162,99.9135,0.0,70.7206,0.0,-48.864,0.0,-169.7432
165449,3LG,40,1.259259,-19.8359,1.258078,-139.5063,1.252015,100.0674,0.0,71.0888,0.0,-48.5368,0.0,-169.5208
287274,SLG,0,0.436918,-83.1561,1.843021,-144.235,1.250335,126.3697,0.0,8.455,0.0,-53.255,0.0,-143.5914
287274,SLG,10,1.264078,-23.495,1.286387,-137.3731,1.209573,100.6697,0.0,67.2185,0.0,-46.5891,0.0,-168.9624
287274,SLG,20,1.263788,-21.454,1.272783,-138.1681,1.231752,100.5613,0.0,69.32,0.0,-47.3414,0.0,-169.0243
287274,SLG,30,1.263315,-20.7637,1.268533,-138.4506,1.239286,100.5424,0.0,70.099,0.0,-47.6043,0.0,-169.0481
287274,SLG,40,1.263005,-20.4168,1.266466,-138.5951,1.243076,100.5362,0.0,70.3894,0.0,-47.6737,0.0,-168.9154
287274,LL,0,0.244316,-115.8905,0.344194,-161.4825,1.579182,109.2392,0.0,-23.5523,0.0,-69.6007,0.0,-160.3533
287274,LL,10,1.219134,-23.4347,1.286039,-141.5727,1.236374,102.436,0.0,67.4616,0.0,-50.5316,0.0,-167.25
287274,LL,20,1.240971,-21.4461,1.274173,-140.2793,1.244104,101.4667,0.0,69.3146,0.0,-49.3739,0.0,-168.1739
287274,LL,30,1.248036,-20.7633,1.26981,-139.8597,1.247279,101.1499,0.0,70.0126,0.0,-48.9564,0.0,-168.4129
287274,LL,40,1.251523,-20.4183,1.267556,-139.6523,1.248979,100.9931,0.0,70.394,0.0,-48.763,0.0,-168.5582
287274,3LG,0,0.14145,-56.606,0.141337,-176.5077,0.140984,63.2784,0.0,34.2445,0.0,-85.6677,0.0,153.6352
287274,3LG,10,1.243222,-21.7469,1.242519,-141.4122,1.236098,98.1775,0.0,69.01,0.0,-50.4588,0.0,-171.4558
287274,3LG,20,1.252717,-20.57,1.251732,-140.2377,1.245508,99.3423,0.0,70.2137,0.0,-49.5036,0.0,-170.1487
287274,3LG,30,1.255788,-20.1723,1.254709,-139.8412,1.24856,99.7358,0.0,70.682,0.0,-48.9218,0.0,-169.8398
287274,3LG,40,1.257305,-19.9725,1.25618,-139.6421,1.250069,99.9335,0.0,70.8012,0.0,-48.8086,0.0,-169.8092
283954,SLG,0,0.406431,-85.5318,1.859037,-144.741,1.266978,127.0692,0.0,6.7038,0.0,-53.7253,0.0,-142.9455
283954,SLG,10,1.268461,-24.2973,1.290717,-136.9861,1.199934,100.6244,0.0,66.7372,0.0,-46.0592,0.0,-168.9507
283954,SLG,20,1.266395,-21.8578,1.274557,-137.9608,1.226909,100.5204,0.0,68.9127,0.0,-47.0196,0.0,-169.0524
283954,SLG,30,1.265146,-21.0333,1.269621,-138.3095,1.236059,100.5111,0.0,69.7794,0.0,-47.375,0.0,-168.8763
283954,SLG,40,1.264414,-20.6191,1.267246,-138.4883,1.240657,100.5112,0.0,70.13,0.0,-47.7979,0.0,-168.9817
283954,LL,0,0.22387,-115.6614,0.332397,-166.7729,1.599632,109.1557,0.0,-23.5663,0.0,-75.0848,0.0,-160.5483
283954,LL,10,1.213675,-24.3141,1.294131,-142.0268,1.231464,102.834,0.0,66.6386,0.0,-51.0384,0.0,-166.9236
283954,LL,20,1.238676,-21.8999,1.278452,-140.4876,1.241067,101.6502,0.0,69.0436,0.0,-49.4146,0.0,-167.9477
283954,LL,30,1.246613,-21.0687,1.272702,-139.9941,1.245132,101.2679,0.0,69.8057,0.0,-49.1594,0.0,-168.4519
283954,LL,40,1.250496,-20.6483,1.269738,-139.7514,1.247324,101.0799,0.0,70.2768,0.0,-48.88,0.0,-168.5582
283954,3LG,0,0.149094,-58.9082,0.149034,-178.8351,0.148662,61.0089,0.0,31.9348,0.0,-87.8149,0.0,151.5106
283954,3LG,10,1.241727,-22.2261,1.241264,-141.8863,1.234584,97.7105,0.0,68.5245,0.0,-51.0335,0.0,-172.0816
283954,3LG,20,1.252089,-20.8138,1.25122,-140.4784,1.244855,99.1046,0.0,70.0511,0.0,-49.6128,0.0,-170.3938
283954,3LG,30,1.255398,-20.3358,1.254394,-140.0024,1.248149,99.5764,0.0,70.5493,0.0,-49.0649,0.0,-170.0505
283954,3LG,40,1.257023,-20.0954,1.255954,-139.7633,1.24977,99.8136,0.0,70.6911,0.0,-48.8727,0.0,-169.6651
283956,SLG,0,0.624272,-69.786,1.78183,-141.5586,1.169462,123.356,0.0,21.6226,0.0,-50.4911,0.0,-146.6696
283956,SLG,10,1.267864,-24.2101,1.290317,-137.0277,1.200933,100.6322,0.0,66.6074,0.0,-46.1999,0.0,-168.8135
283956,SLG,20,1.26622,-21.8354,1.27448,-137.9721,1.227163,100.5235,0.0,68.9444,0.0,-46.9968,0.0,-169.0243
283956,SLG,30,1.265065,-21.0232,1.26959,-138.3147,1.236173,100.5127,0.0,69.7326,0.0,-47.5004,0.0,-169.0632
283956,SLG,40,1.264367,-20.6133,1.26723,-138.4912,1.240722,100.5122,0.0,70.2094,0.0,-47.3815,0.0,-169.1809
283956,LL,0,0.436365,-76.2679,0.562043,-169.1854,1.518663,109.5883,0.0,14.8642,0.0,-77.7582,0.0,-160.0927
283956,LL,10,1.214474,-24.2116,1.292668,-141.9848,1.232179,102.7835,0.0,66.7302,0.0,-51.0981,0.0,-166.74
283956,LL,20,1.238851,-21.8726,1.278064,-140.4785,1.241292,101.6385,0.0,68.8448,0.0,-49.6614,0.0,-167.9477
283956,LL,30,1.246687,-21.0562,1.272527,-139.9902,1.245239,101.2629,0.0,69.7977,0.0,-49.0807,0.0,-168.4384
283956,LL,40,1.250537,-20.6412,1.269639,-139.7492,1.247387,101.0771,0.0,70.0054,0.0,-48.7929,0.0,-168.5057
283956,3LG,0,0.419634,-55.7917,0.419568,-175.6891,0.418194,64.117,0.0,35.0421,0.0,-84.855,0.0,154.5561
283956,3LG,10,1.241786,-22.1854,1.241305,-141.8461,1.234648,97.75,0.0,68.6404,0.0,-51.0073,0.0,-171.8122
283956,3LG,20,1.252102,-20.8032,1.251227,-140.4679,1.244869,99.1149,0.0,70.0169,0.0,-49.6366,0.0,-170.3825
283956,3LG,30,1.255403,-20.3309,1.254398,-139.9977,1.248155,99.5811,0.0,70.5489,0.0,-49.1861,0.0,-169.8092
283956,3LG,40,1.257027,-20.0926,1.255956,-139.7605,1.249774,99.8163,0.0,70.7155,0.0,-48.7271,0.0,-169.767
189963,SLG,0,0.194372,-94.4846,1.933661,-144.5938,1.267725,130.3467,0.0,-0.8697,0.0,-53.6437,0.0,-139.6044
189963,SLG,10,1.244366,-27.2482,1.311872,-135.7038,1.164109,100.7184,0.0,63.6244,0.0,-44.8343,0.0,-168.7607
189963,SLG,20,1.255898,-23.3751,1.283517,-137.2315,1.208416,100.4749,0.0,67.4686,0.0,-46.5221,0.0,-169.0437
189963,SLG,30,1.258521,-22.053,1.275171,-137.805,1.223646,100.4603,0.0,68.7858,0.0,-46.9602,0.0,-169.0264
189963,SLG,40,1.259589,-21.3868,1.271241,-138.1032,1.231323,100.4655,0.0,69.4935,0.0,-47.1314,0.0,-169.0632
189963,LL,0,0.110363,-162.992,0.160923,-163.1794,1.667013,109.4707,0.0,-69.1712,0.0,-70.0725,0.0,-160.2336
189963,LL,10,1.153449,-27.3741,1.28692,-143.8221,1.219584,104.4985,0.0,63.5422,0.0,-52.8992,0.0,-165.0156
189963,LL,20,1.209567,-23.5207,1.276042,-141.3204,1.231886,102.4263,0.0,67.3513,0.0,-50.4566,0.0,-167.3163
189963,LL,30,1.227504,-22.1669,1.271295,-140.5325,1.23833,101.7667,0.0,68.6817,0.0,-49.5409,0.0,-167.6402
189963,LL,40,1.236286,-21.4782,1.268746,-140.1487,1.241976,101.4462,0.0,69.399,0.0,-49.2003,0.0,-168.2124
189963,3LG,0,0.029214,-13.5239,0.029218,-133.5355,0.029226,106.4693,0.0,77.2466,0.0,-42.6187,0.0,-162.9961
189963,3LG,10,1.20017,-23.8441,1.200758,-143.4951,1.193484,96.153,0.0,67.0667,0.0,-52.5002,0.0,-173.5899
189963,3LG,20,1.231225,-21.6662,1.230875,-141.3218,1.224121,98.2836,0.0,69.222,0.0,-50.4568,0.0,-171.3946
189963,3LG,30,1.241484,-20.9137,1.240821,-140.5735,1.234298,99.0194,0.0,69.8455,0.0,-49.8219,0.0,-170.6273
189963,3LG,40,1.246588,-20.5325,1.245772,-140.1949,1.239374,99.3922,0.0,70.3521,0.0,-49.3306,0.0,-170.2819
181977,SLG,0,0.264722,-78.4848,1.896806,-143.8469,1.24048,128.7549,0.0,14.0362,0.0,-52.8522,0.0,-141.3137
181977,SLG,10,1.246891,-27.8273,1.315893,-135.4519,1.157091,100.726,0.0,62.9851,0.0,-44.5202,0.0,-168.9105
181977,SLG,20,1.25801,-23.6884,1.285013,-137.0729,1.204622,100.445,0.0,67.0018,0.0,-46.3462,0.0,-169.1408
181977,SLG,30,1.260136,-22.2665,1.27602,-137.6926,1.221077,100.4326,0.0,68.6124,0.0,-46.7029,0.0,-169.1482
181977,SLG,40,1.260879,-21.5485,1.271817,-138.0165,1.229385,100.4418,0.0,69.3092,0.0,-47.1074,0.0,-169.1869
181977,LL,0,0.120236,-88.9619,0.264794,-171.289,1.640493,109.2628,0.0,3.0546,0.0,-79.1415,0.0,-160.4915
181977,LL,10,1.148629,-27.9625,1.292739,-144.2259,1.217727,104.8372,0.0,62.774,0.0,-53.4053,0.0,-164.8293
181977,LL,20,1.207789,-23.8718,1.279582,-141.4993,1.229744,102.5835,0.0,67.0347,0.0,-50.5723,0.0,-167.2199
181977,LL,30,1.226507,-22.4124,1.273756,-140.6451,1.236643,101.8654,0.0,68.4696,0.0,-49.7591,0.0,-167.6112
181977,LL,40,1.235615,-21.6664,1.270624,-140.2304,1.240618,101.5175,0.0,69.1659,0.0,-49.2814,0.0,-168.1323
181977,3LG,0,0.158982,-46.8265,0.159056,-166.8158,0.158968,73.1824,0.0,43.8868,0.0,-75.8644,0.0,163.6738
181977,3LG,10,1.199481,-24.184,1.200296,-143.8316,1.192811,95.8244,0.0,66.5718,0.0,-52.8783,0.0,-173.7297
181977,3LG,20,1.230971,-21.858,1.230729,-141.5102,1.223837,98.0979,0.0,68.8311,0.0,-50.6549,0.0,-171.4625
181977,3LG,30,1.241344,-21.0465,1.240749,-140.7037,1.234128,98.8907,0.0,69.6169,0.0,-49.8483,0.0,-170.6714
181977,3LG,40,1.246495,-20.6339,1.245728,-140.2942,1.239254,99.2938,0.0,70.1016,0.0,-49.3796,0.0,-170.2705
181924,SLG,0,0.09149,-104.3237,1.942694,-146.9637,1.348917,130.3207,0.0,-8.5535,0.0,-56.023,0.0,-139.4715
181924,SLG,10,1.256469,-29.5804,1.32645,-134.6625,1.136126,100.6528,0.0,61.2016,0.0,-43.8261,0.0,-168.9573
181924,SLG,20,1.264138,-24.5153,1.2884,-136.6468,1.194748,100.3352,0.0,66.3548,0.0,-45.8705,0.0,-169.242
181924,SLG,30,1.26449,-22.8049,1.277834,-137.405,1.214687,100.3459,0.0,68.048,0.0,-46.4168,0.0,-169.393
181924,SLG,40,1.264241,-21.9473,1.27301,-137.8001,1.224671,100.3721,0.0,68.7989,0.0,-46.8169,0.0,-169.174
181924,LL,0,0.057385,-174.5817,0.06925,-173.4285,1.702375,107.5535,0.0,-76.686,0.0,-77.0398,0.0,-162.0029
181924,LL,10,1.134639,-29.9426,1.312519,-145.3165,1.209345,105.8616,0.0,60.9159,0.0,-54.3385,0.0,-163.7689
181924,LL,20,1.203472,-24.8506,1.289307,-141.9323,1.223254,102.9869,0.0,65.928,0.0,-51.002,0.0,-166.7045
181924,LL,30,1.224241,-23.0567,1.280068,-140.9096,1.231969,102.1052,0.0,67.8519,0.0,-50.0813,0.0,-167.486
181924,LL,40,1.234144,-22.1458,1.275275,-140.4201,1.237008,101.6861,0.0,68.6967,0.0,-49.4404,0.0,-168.0379
181924,3LG,0,0.006899,-17.8311,0.006903,-137.8096,0.006901,102.1868,0.0,73.1601,0.0,-46.8396,0.0,-167.5228
181924,3LG,10,1.196845,-25.2059,1.198096,-144.8332,1.190017,94.8315,0.0,65.6513,0.0,-53.9957,0.0,-174.7865
181924,3LG,20,1.230174,-22.3667,1.230072,-142.0062,1.222866,97.6014,0.0,68.4603,0.0,-51.1468,0.0,-171.9867
181924,3LG,30,1.240935,-21.3846,1.240413,-141.033,1.233586,98.56,0.0,69.3775,0.0,-50.1659,0.0,-171.0627
181924,3LG,40,1.246236,-20.887,1.245515,-140.5407,1.238889,99.0459,0.0,69.895,0.0,-49.6782,0.0,-170.6376
181993,SLG,0,0.06211,-111.2937,1.933272,-147.7227,1.373238,129.7775,0.0,-12.0701,0.0,-56.6579,0.0,-140.0423
181993,SLG,10,1.25773,-30.5468,1.334189,-134.3784,1.126299,100.7855,0.0,60.3171,0.0,-43.5284,0.0,-168.8289
181993,SLG,20,1.265725,-24.9908,1.291373,-136.4698,1.189786,100.3509,0.0,65.9905,0.0,-45.6273,0.0,-169.3242
181993,SLG,30,1.265756,-23.119,1.279584,-137.2809,1.21141,100.3462,0.0,67.673,0.0,-46.3433,0.0,-169.3292
181993,SLG,40,1.265267,-22.1816,1.274232,-137.705,1.222231,100.3687,0.0,68.7106,0.0,-46.8058,0.0,-169.2157
181993,LL,0,0.042528,-179.1273,0.043513,178.9289,1.706563,106.8951,0.0,-79.7521,0.0,-79.9848,0.0,-162.6578
181993,LL,10,1.124432,-30.8408,1.320568,-146.0575,1.20931,106.4009,0.0,60.0596,0.0,-55.215,0.0,-163.2242
181993,LL,20,1.199712,-25.3308,1.293795,-142.2477,1.221508,103.2227,0.0,65.464,0.0,-51.3578,0.0,-166.3386
181993,LL,30,1.222071,-23.38,1.283076,-141.107,1.230497,102.2499,0.0,67.3428,0.0,-50.0983,0.0,-167.3678
181993,LL,40,1.232646,-22.389,1.277525,-140.5633,1.235802,101.7895,0.0,68.5129,0.0,-49.7361,0.0,-167.8768
181993,3LG,0,0.001017,-85.6257,0.001018,154.3926,0.001018,34.3623,0.0,5.2834,0.0,-114.6857,0.0,124.8072
181993,3LG,10,1.194999,-25.7513,1.196425,-145.3703,1.188125,94.2978,0.0,65.0524,0.0,-54.4603,0.0,-175.1775
181993,3LG,20,1.229519,-22.6485,1.229471,-142.2821,1.222136,97.3247,0.0,68.2002,0.0,-51.3164,0.0,-172.2194
181993,3LG,30,1.240566,-21.5742,1.240069,-141.2186,1.233157,98.3734,0.0,69.2969,0.0,-50.2501,0.0,-171.3211
181993,3LG,40,1.245985,-21.0299,1.245279,-140.6804,1.23859,98.9052,0.0,69.6509,0.0,-49.7845,0.0,-170.7043
181994,SLG,0,0.038303,-114.3242,1.918656,-148.0807,1.383278,129.1042,0.0,-7.8434,0.0,-57.0845,0.0,-140.7031
181994,SLG,10,1.255163,-31.5821,1.342481,-134.1345,1.116889,100.9676,0.0,59.1279,0.0,-43.3333,0.0,-168.5283
181994,SLG,20,1.2656,-25.509,1.294616,-136.3028,1.184859,100.3827,0.0,65.1994,0.0,-45.548,0.0,-169.1065
181994,SLG,30,1.265934,-23.463,1.281498,-137.1614,1.208129,100.3553,0.0,67.2656,0.0,-46.2391,0.0,-169.4529
181994,SLG,40,1.265498,-22.4388,1.275569,-137.6127,1.21978,100.3712,0.0,68.2739,0.0,-46.8284,0.0,-169.2285
181994,LL,0,0.025997,177.7909,0.026961,174.9994,1.704582,106.4468,0.0,-78.1654,0.0,-81.6868,0.0,-163.2392
181994,LL,10,1.110928,-31.7508,1.324897,-146.9068,1.21072,106.9336,0.0,59.0572,0.0,-56.0914,0.0,-162.7038
181994,LL,20,1.194289,-25.8377,1.296767,-142.617,1.220163,103.4657,0.0,64.9436,0.0,-51.7982,0.0,-166.2556
181994,LL,30,1.218816,-23.7248,1.285133,-141.3395,1.229218,102.3997,0.0,67.1971,0.0,-50.4074,0.0,-167.2048
181994,LL,40,1.230344,-22.6495,1.279081,-140.7325,1.234716,101.8966,0.0,68.1749,0.0,-49.6998,0.0,-167.8103
181994,3LG,0,0.000931,-86.5979,0.000931,153.4386,0.000931,33.4,0.0,4.3655,0.0,-115.5742,0.0,123.6901
181994,3LG,10,1.190386,-26.3581,1.191995,-145.9685,1.18349,93.7037,0.0,64.3565,0.0,-55.0176,0.0,-175.7427
181994,3LG,20,1.227482,-22.967,1.227492,-142.5944,1.220027,97.0119,0.0,67.9695,0.0,-51.6157,0.0,-172.7468
181994,3LG,30,1.239279,-21.7897,1.23881,-141.4296,1.231811,98.1614,0.0,69.0786,0.0,-50.573,0.0,-171.5131
181994,3LG,40,1.245049,-21.1926,1.244359,-140.8398,1.237605,98.7449,0.0,69.634,0.0,-49.9801,0.0,-170.9499
181891,SLG,0,0.326701,-50.491,1.834836,-144.3145,1.254956,125.8549,0.0,41.3288,0.0,-53.3409,0.0,-144.0368
181891,SLG,10,1.260415,-29.7598,1.327872,-134.3706,1.129757,100.5176,0.0,61.2924,0.0,-43.5175,0.0,-169.0248
181891,SLG,20,1.268858,-24.655,1.287753,-136.4337,1.191088,100.1842,0.0,66.1946,0.0,-45.677,0.0,-169.2289
181891,SLG,30,1.268298,-22.9054,1.276995,-137.2511,1.212233,100.2263,0.0,67.9692,0.0,-46.4124,0.0,-169.2189
181891,SLG,40,1.26735,-22.0248,1.272214,-137.6808,1.22284,100.2754,0.0,68.6971,0.0,-46.7301,0.0,-169.296
181891,LL,0,0.229789,-41.618,0.352408,-156.4228,1.609119,107.7323,0.0,48.7825,0.0,-64.6411,0.0,-161.9796
181891,LL,10,1.132766,-30.1329,1.316372,-145.4641,1.207464,106.1378,0.0,60.872,0.0,-54.5352,0.0,-163.3872
181891,LL,20,1.204536,-25.1225,1.293473,-141.9379,1.219328,103.1043,0.0,65.8015,0.0,-51.1688,0.0,-166.5979
181891,LL,30,1.225602,-23.2696,1.283155,-140.8924,1.228758,102.1661,0.0,67.5445,0.0,-50.0639,0.0,-167.4712
181891,LL,40,1.235431,-22.3162,1.277676,-140.3987,1.234398,101.7238,0.0,68.4437,0.0,-49.6078,0.0,-168.0098
181891,3LG,0,0.285524,-31.3727,0.285799,-151.2525,0.285123,88.6575,0.0,59.3364,0.0,-60.5336,0.0,179.0452
181891,3LG,10,1.197618,-25.2927,1.198792,-144.9141,1.190662,94.7419,0.0,65.5203,0.0,-54.0354,0.0,-174.7928
181891,3LG,20,1.231091,-22.4603,1.23093,-142.094,1.22365,97.507,0.0,68.3027,0.0,-51.0945,0.0,-172.0834
181891,3LG,30,1.241696,-21.458,1.241122,-141.1021,1.234242,98.4857,0.0,69.275,0.0,-50.2065,0.0,-171.2074
181891,3LG,40,1.246868,-20.9462,1.246102,-140.5965,1.239436,98.9859,0.0,69.9021,0.0,-49.8802,0.0,-170.6714
255335,SLG,0,0.000517,-112.1891,1.897413,-147.9658,1.377011,128.2491,3722.7862,-112.1891,0.0,-56.9248,0.0,-141.637
255335,SLG,10,1.237028,-33.4819,1.358314,-133.7954,1.101295,101.4045,890.6056,-33.4819,0.0,-43.0547,0.0,-168.2488
255335,SLG,20,1.258815,-26.4953,1.301163,-136.0267,1.176038,100.4817,453.1454,-26.4953,0.0,-44.9943,0.0,-169.0821
255335,SLG,30,1.261969,-24.1249,1.285418,-136.9561,1.202145,100.3953,302.8539,-24.1249,0.0,-46.1261,0.0,-169.3631
255335,SLG,40,1.262737,-22.9363,1.278325,-137.4513,1.215271,100.3917,227.2787,-22.9363,0.0,-46.6616,0.0,-169.2319
255335,LL,0,0.000581,-69.363,0.000802,135.0751,1.696404,106.0957,4181.3191,-69.363,5772.1226,135.0751,0.0,-163.5487
255335,LL,10,1.075435,-33.2821,1.318859,-148.5668,1.21653,107.8492,774.2653,-33.2821,949.5205,-148.5668,0.0,-161.9032
255335,LL,20,1.178194,-26.7607,1.296043,-143.3622,1.218754,103.923,424.124,-26.7607,466.5468,-143.3622,0.0,-165.7128
255335,LL,30,1.208667,-24.3649,1.284949,-141.8119,1.227406,102.6865,290.0622,-24.3649,308.3689,-141.8119,0.0,-166.8416
255335,LL,40,1.222972,-23.1374,1.279021,-141.0773,1.233059,102.1029,220.1215,-23.1374,230.2096,-141.0773,0.0,-167.5526
255335,3LG,0,0.00078,-85.1677,0.000781,154.8886,0.00078,34.8477,5612.4349,-85.1677,5621.1161,154.8886,5614.3077,34.8477
255335,3LG,10,1.171414,-27.4746,1.173401,-147.0711,1.16461,92.6117,843.366,-27.4746,844.7966,-147.0711,838.468,92.6117
255335,3LG,20,1.218171,-23.5748,1.218324,-143.1903,1.210638,96.4162,438.5145,-23.5748,438.5696,-143.1903,435.8027,96.4162
255335,3LG,30,1.233146,-22.2055,1.232751,-141.8368,1.225598,97.7529,295.9368,-22.2055,295.8421,-141.8368,294.1254,97.7529
255335,3LG,40,1.240481,-21.5084,1.239838,-141.149,1.232968,98.4343,223.2728,-21.5084,223.1571,-141.149,221.9207,98.4343
182030,SLG,0,0.047597,-72.7968,1.888046,-147.2869,1.353816,127.9615,3673.7852,-110.1575,0.0,-56.828,0.0,-141.7346
182030,SLG,10,1.235821,-33.3664,1.357877,-133.8511,1.102627,101.4247,883.2625,-33.6883,0.0,-43.09,0.0,-167.8553
182030,SLG,20,1.258423,-26.4678,1.301149,-136.0426,1.176347,100.4909,451.3521,-26.6293,0.0,-45.7626,0.0,-169.0956
182030,SLG,30,1.261782,-24.113,1.285428,-136.9632,1.202276,100.3998,302.0722,-24.2209,0.0,-46.6718,0.0,-169.1145
182030,SLG,40,1.262629,-22.9297,1.278335,-137.4554,1.215342,100.3944,226.8443,-23.0107,0.0,-47.0953,0.0,-168.7706
182030,LL,0,0.042624,-42.5712,0.063103,176.1263,1.686154,106.4288,4047.5735,-68.4579,5609.7082,136.8791,0.0,-162.9921
182030,LL,10,1.076153,-33.1201,1.316803,-148.5044,1.217393,107.7748,768.461,-33.3312,942.4339,-148.8465,0.0,-161.5542
182030,LL,20,1.178209,-26.719,1.295514,-143.3532,1.219123,103.9103,422.4194,-26.8302,465.0141,-143.5249,0.0,-165.7383
182030,LL,30,1.208647,-24.3465,1.284721,-141.8088,1.227584,102.6821,289.2818,-24.4217,307.7282,-141.9232,0.0,-166.5227
182030,LL,40,1.222954,-23.1272,1.278895,-141.0758,1.233162,102.1008,219.6779,-23.1839,229.8605,-141.1616,0.0,-167.5819
182030,3LG,0,0.057642,-49.3576,0.057756,-169.2577,0.057632,70.6954,5435.2754,-83.7083,5444.3347,156.3517,5436.7456,36.3095
182030,3LG,10,1.171355,-27.4079,1.173302,-147.0059,1.164562,92.676,838.1,-27.6532,839.5187,-147.2525,833.2689,92.4315
182030,3LG,20,1.218126,-23.5575,1.218274,-143.1735,1.210602,96.433,437.1371,-23.6806,437.1978,-143.2971,434.4436,96.3105
182030,3LG,30,1.233121,-22.1978,1.232725,-141.8293,1.225577,97.7605,295.318,-22.28,295.2265,-141.9118,293.5142,97.6787
182030,3LG,40,1.240465,-21.504,1.239822,-141.1448,1.232956,98.4386,222.9232,-21.5658,222.8095,-141.2066,221.5751,98.3772
182153,SLG,0,0.275027,-57.5909,1.861869,-144.5069,1.26208,127.0705,0.0,34.7521,0.0,-53.5757,0.0,-142.8529
182153,SLG,10,1.240111,-35.0495,1.379673,-132.8683,1.07384,101.8418,0.0,55.8962,0.0,-42.1185,0.0,-167.8943
182153,SLG,20,1.267775,-27.3866,1.306333,-135.2842,1.159173,100.2306,0.0,63.3981,0.0,-44.385,0.0,-169.2495
182153,SLG,30,1.269594,-24.7493,1.287618,-136.4104,1.190696,100.1652,0.0,66.1581,0.0,-45.5564,0.0,-169.4366
182153,SLG,40,1.269099,-23.4139,1.279444,-137.0253,1.206662,100.196,0.0,67.3262,0.0,-46.1738,0.0,-169.4656
182153,LL,0,0.312654,-40.9828,0.335984,-178.7904,1.638876,107.2622,0.0,49.3381,0.0,-87.0052,0.0,-162.2632
182153,LL,10,1.054211,-34.0285,1.330111,-149.6977,1.221145,109.103,0.0,56.9158,0.0,-58.8659,0.0,-160.5523
182153,LL,20,1.168914,-27.932,1.310536,-143.7256,1.208628,104.6799,0.0,62.927,0.0,-52.8976,0.0,-165.0865
182153,LL,30,1.204264,-25.2403,1.295283,-141.9895,1.21838,103.1329,0.0,65.5636,0.0,-51.2873,0.0,-166.5069
182153,LL,40,1.220427,-23.8245,1.28689,-141.1846,1.225532,102.4088,0.0,67.0775,0.0,-50.2095,0.0,-167.1593
182153,3LG,0,0.348689,-49.1563,0.349696,-168.965,0.348209,70.9374,0.0,41.5774,0.0,-78.0569,0.0,161.2403
182153,3LG,10,1.165857,-27.9669,1.168714,-147.5405,1.159173,92.1715,0.0,62.827,0.0,-56.5994,0.0,-177.3219
182153,3LG,20,1.215645,-23.9943,1.216137,-143.5816,1.207798,96.0265,0.0,66.7992,0.0,-52.7884,0.0,-173.3915
182153,3LG,30,1.231637,-22.5254,1.231398,-142.1353,1.223787,97.4512,0.0,68.3576,0.0,-51.2634,0.0,-172.142
182153,3LG,40,1.239432,-21.7636,1.238875,-141.3875,1.231663,98.1919,0.0,69.0134,0.0,-50.6507,0.0,-171.5131
182158,SLG,0,0.341546,-53.1254,1.843733,-143.816,1.239791,126.2625,0.0,38.6314,0.0,-52.9281,0.0,-143.7927
182158,SLG,10,1.2399,-35.6373,1.388426,-132.5578,1.064038,102.0822,0.0,55.3374,0.0,-41.7419,0.0,-167.403
182158,SLG,20,1.271137,-27.7026,1.308087,-135.0084,1.153011,100.1256,0.0,63.161,0.0,-44.1652,0.0,-169.5191
182158,SLG,30,1.27261,-24.9667,1.288182,-136.2064,1.186569,100.0663,0.0,65.9077,0.0,-45.3576,0.0,-169.588
182158,SLG,40,1.27166,-23.5784,1.279609,-136.8661,1.203592,100.1113,0.0,67.2365,0.0,-45.874,0.0,-169.6328
182158,LL,0,0.379714,-38.8728,0.403982,-174.0659,1.619584,107.3374,0.0,51.6637,0.0,-82.4293,0.0,-162.3701
182158,LL,10,1.053327,-33.6435,1.326349,-150.2141,1.228137,109.2556,0.0,57.1715,0.0,-59.0854,0.0,-160.3324
182158,LL,20,1.16542,-28.3543,1.315921,-143.8714,1.205034,104.9708,0.0,62.4762,0.0,-52.9841,0.0,-164.638
182158,LL,30,1.20285,-25.5617,1.299193,-142.0519,1.214925,103.2982,0.0,65.3669,0.0,-51.1421,0.0,-166.316
182158,LL,40,1.21976,-24.0775,1.289862,-141.2173,1.222602,102.518,0.0,66.6786,0.0,-50.269,0.0,-167.0619
182158,3LG,0,0.4174,-45.8375,0.418736,-165.6072,0.416623,74.2745,0.0,44.8315,0.0,-74.6051,0.0,164.767
182158,3LG,10,1.16374,-28.1469,1.166868,-147.7177,1.157151,92.0051,0.0,62.6498,0.0,-56.9004,0.0,-177.605
182158,3LG,20,1.214831,-24.1461,1.215437,-143.7245,1.206875,95.8841,0.0,66.7235,0.0,-52.7761,0.0,-173.7213
182158,3LG,30,1.231211,-22.6411,1.231015,-142.2438,1.223247,97.341,0.0,68.2301,0.0,-51.2055,0.0,-172.3554
182158,3LG,40,1.239166,-21.8558,1.238625,-141.474,1.231296,98.1033,0.0,68.9394,0.0,-50.5877,0.0,-171.3782
182162,SLG,0,0.397891,-49.7805,1.826889,-143.2903,1.223462,125.4835,0.0,41.902,0.0,-52.3888,0.0,-144.6366
182162,SLG,10,1.239177,-36.2252,1.397743,-132.2653,1.054238,102.3631,0.0,54.6647,0.0,-41.5374,0.0,-167.4281
182162,SLG,20,1.274524,-28.0184,1.309983,-134.7303,1.146733,100.0218,0.0,62.9301,0.0,-43.7888,0.0,-169.6297
182162,SLG,30,1.275723,-25.1826,1.288768,-135.9992,1.182381,99.9648,0.0,65.6882,0.0,-44.9943,0.0,-169.8155
182162,SLG,40,1.274326,-23.7407,1.279757,-136.7043,1.200488,100.0235,0.0,67.1513,0.0,-45.8786,0.0,-169.4831
182162,LL,0,0.435208,-37.3138,0.459357,-170.4781,1.602587,107.3393,0.0,53.1444,0.0,-79.0027,0.0,-162.2793
182162,LL,10,1.052724,-33.2663,1.322376,-150.7112,1.235102,109.3938,0.0,57.646,0.0,-59.795,0.0,-160.1679
182162,LL,20,1.161684,-28.7701,1.321498,-144.0283,1.201654,105.2778,0.0,62.0992,0.0,-53.0851,0.0,-164.5058
182162,LL,30,1.201399,-25.883,1.303291,-142.116,1.211459,103.4715,0.0,64.9073,0.0,-51.153,0.0,-166.2996
182162,LL,40,1.219125,-24.3312,1.292976,-141.2489,1.21962,102.6309,0.0,66.4751,0.0,-50.3966,0.0,-166.8459
182162,3LG,0,0.472885,-43.355,0.474499,-163.0904,0.471789,76.7705,0.0,47.56,0.0,-72.195,0.0,167.298
182162,3LG,10,1.161739,-28.3171,1.165134,-147.8869,1.155277,91.8474,0.0,62.4923,0.0,-57.0793,0.0,-177.7471
182162,3LG,20,1.214107,-24.2937,1.214841,-143.8631,1.20605,95.7465,0.0,66.4219,0.0,-52.9983,0.0,-173.8672
182162,3LG,30,1.230864,-22.7542,1.230716,-142.3494,1.222783,97.2338,0.0,68.0504,0.0,-51.3507,0.0,-172.4416
182162,3LG,40,1.238967,-21.9461,1.238445,-141.5584,1.230994,98.0168,0.0,68.9928,0.0,-50.6437,0.0,-171.7253
